8

He       3.0055860000000001      -3.0055860000000001       0.0000000000000000
He       3.0037140000000000      -0.0000000000000000       0.0000000000000000
He       3.0055860000000001       3.0055860000000001       0.0000000000000000
He       0.0000000000000000       3.0037140000000000       0.0000000000000000
He      -3.0055860000000001       3.0055860000000001      -0.0000000000000000
He      -3.0037140000000000       0.0000000000000000      -0.0000000000000000
He      -3.0055860000000001      -3.0055860000000001      -0.0000000000000000
He      -0.0000000000000000      -3.0037140000000000      -0.0000000000000000
