120

C         -1.11371       -0.09791       -0.81183
C         -0.11556       -1.08792       -0.86572
C         -0.97938        0.95193        0.05245
C          1.11371        0.09791        0.81183
C          0.11556        1.08792        0.86572
C          0.97938       -0.95193       -0.05245
C         -3.80698       -0.09791        6.37253
C         -2.80884       -1.08792        6.31865
C         -3.67266        0.95193        7.23681
C         -1.57956        0.09791        7.99620
C         -2.57771        1.08792        8.05008
C         -1.71389       -0.95193        7.13192
C         -1.11371        5.34169       -0.81183
C         -0.11556        4.35168       -0.86572
C         -0.97938        6.39153        0.05245
C          1.11371        5.53751        0.81183
C          0.11556        6.52752        0.86572
C          0.97938        4.48767       -0.05245
C         -3.80698        5.34169        6.37253
C         -2.80884        4.35168        6.31865
C         -3.67266        6.39153        7.23681
C         -1.57956        5.53751        7.99620
C         -2.57771        6.52752        8.05008
C         -1.71389        4.48767        7.13192
C          4.40829       -0.09791       -0.81183
C          5.40644       -1.08792       -0.86572
C          4.54262        0.95193        0.05245
C          6.63571        0.09791        0.81183
C          5.63756        1.08792        0.86572
C          6.50138       -0.95193       -0.05245
C          1.71502       -0.09791        6.37253
C          2.71316       -1.08792        6.31865
C          1.84934        0.95193        7.23681
C          3.94244        0.09791        7.99620
C          2.94429        1.08792        8.05008
C          3.80811       -0.95193        7.13192
C          4.40829        5.34169       -0.81183
C          5.40644        4.35168       -0.86572
C          4.54262        6.39153        0.05245
C          6.63571        5.53751        0.81183
C          5.63756        6.52752        0.86572
C          6.50138        4.48767       -0.05245
C          1.71502        5.34169        6.37253
C          2.71316        4.35168        6.31865
C          1.84934        6.39153        7.23681
C          3.94244        5.53751        7.99620
C          2.94429        6.52752        8.05008
C          3.80811        4.48767        7.13192
C         -0.23293        2.62189        4.40402
C         -1.23107        1.63188        4.45790
C         -0.36725        3.67173        3.53974
C         -2.46035        2.81771        2.78035
C         -1.46220        3.80772        2.72647
C         -2.32602        1.76787        3.64463
C          5.28907        2.62189        4.40402
C          4.29093        1.63188        4.45790
C          5.15475        3.67173        3.53974
C          3.06165        2.81771        2.78035
C          4.05980        3.80772        2.72647
C          3.19598        1.76787        3.64463
H         -1.86105       -0.15829       -1.36216
H         -0.19716       -1.81683       -1.43759
H         -1.65161        1.59326        0.08980
H          1.86105        0.15829        1.36216
H          0.19716        1.81683        1.43759
H          1.65161       -1.59326       -0.08980
H         -4.55433       -0.15829        5.82221
H         -2.89043       -1.81683        5.74677
H         -4.34488        1.59326        7.27417
H         -0.83222        0.15829        8.54652
H         -2.49611        1.81683        8.62195
H         -1.04166       -1.59326        7.09456
H         -1.86105        5.28131       -1.36216
H         -0.19716        3.62277       -1.43759
H         -1.65161        7.03286        0.08980
H          1.86105        5.59789        1.36216
H          0.19716        7.25643        1.43759
H          1.65161        3.84634       -0.08980
H         -4.55433        5.28131        5.82221
H         -2.89043        3.62277        5.74677
H         -4.34488        7.03286        7.27417
H         -0.83222        5.59789        8.54652
H         -2.49611        7.25643        8.62195
H         -1.04166        3.84634        7.09456
H          3.66094       -0.15829       -1.36216
H          5.32484       -1.81683       -1.43759
H          3.87039        1.59326        0.08980
H          7.38305        0.15829        1.36216
H          5.71916        1.81683        1.43759
H          7.17361       -1.59326       -0.08980
H          0.96767       -0.15829        5.82221
H          2.63157       -1.81683        5.74677
H          1.17712        1.59326        7.27417
H          4.68978        0.15829        8.54652
H          3.02589        1.81683        8.62195
H          4.48034       -1.59326        7.09456
H          3.66094        5.28131       -1.36216
H          5.32484        3.62277       -1.43759
H          3.87039        7.03286        0.08980
H          7.38305        5.59789        1.36216
H          5.71916        7.25643        1.43759
H          7.17361        3.84634       -0.08980
H          0.96767        5.28131        5.82221
H          2.63157        3.62277        5.74677
H          1.17712        7.03286        7.27417
H          4.68978        5.59789        8.54652
H          3.02589        7.25643        8.62195
H          4.48034        3.84634        7.09456
H          0.51442        2.56151        4.95434
H         -1.14948        0.90297        5.02977
H          0.30498        4.31306        3.50238
H         -3.20769        2.87809        2.23003
H         -1.54380        4.53663        2.15459
H         -2.99825        1.12654        3.68199
H          6.03642        2.56151        4.95434
H          4.37252        0.90297        5.02977
H          5.82698        4.31306        3.50238
H          2.31431        2.87809        2.23003
H          3.97820        4.53663        2.15459
H          2.52375        1.12654        3.68199
