8

He       0.9438480000000001      -1.6347780000000001       1.3533660000000001 
He       0.9438480000000001       1.6347780000000001       1.3533660000000001 
He      -1.8876780000000002       0.0000000000000000       1.3533660000000001 
He      -1.8876780000000002       0.0000000000000000      -1.3533660000000001 
He       0.9438480000000001       1.6347780000000001      -1.3533660000000001 
He       0.9438480000000001      -1.6347780000000001      -1.3533660000000001 
He      -0.0000000000000000      -0.0000000000000000       4.0220460000000005 
He      -0.0000000000000000      -0.0000000000000000      -4.0220460000000005 
