8

He       0.0000000000000000       0.0000000000000000     -10.3846049999999988 
He       0.0000000000000000       0.0000000000000000      -7.4152400000000007 
He       0.0000000000000000       0.0000000000000000      -4.4478175000000002 
He       0.0000000000000000       0.0000000000000000      -1.4825999999999999 
He       0.0000000000000000       0.0000000000000000       1.4825999999999999 
He       0.0000000000000000       0.0000000000000000       4.4478175000000002 
He       0.0000000000000000       0.0000000000000000       7.4152400000000007 
He       0.0000000000000000       0.0000000000000000      10.3846049999999988 
