8

He       1.4673050000000001      -1.4673050000000001       1.4673050000000001
He       1.4673050000000001      -1.4673050000000001      -1.4673050000000001
He       1.4673050000000001       1.4673050000000001      -1.4673050000000001
He       1.4673050000000001       1.4673050000000001       1.4673050000000001
He      -1.4673050000000001       1.4673050000000001       1.4673050000000001
He      -1.4673050000000001       1.4673050000000001      -1.4673050000000001
He      -1.4673050000000001      -1.4673050000000001      -1.4673050000000001
He      -1.4673050000000001      -1.4673050000000001       1.4673050000000001

