8

He       1.4511540000000003       1.4511540000000003       1.4296830000000003 
He       1.4511540000000003      -1.4511540000000003       1.4296830000000003 
He      -1.4511540000000003      -1.4511540000000003       1.4296830000000003 
He      -1.4511540000000003       1.4511540000000003       1.4296830000000003 
He       0.0000000000000000       2.0522400000000003      -1.4296830000000003 
He       2.0522400000000003      -0.0000000000000000      -1.4296830000000003 
He      -0.0000000000000000      -2.0522400000000003      -1.4296830000000003 
He      -2.0522400000000003       0.0000000000000000      -1.4296830000000003 
