8

He      -0.0000000000000000      -1.4825650000000001      -4.4275349999999998 
He       0.0000000000000000       1.4825650000000001      -4.4275349999999998 
He       0.0000000000000000       1.4826699999999999      -1.4717325000000001 
He      -0.0000000000000000      -1.4826699999999999      -1.4717325000000001 
He      -0.0000000000000000      -1.4826699999999999       1.4717325000000001 
He       0.0000000000000000       1.4826699999999999       1.4717325000000001 
He       0.0000000000000000       1.4825650000000001       4.4275349999999998 
He      -0.0000000000000000      -1.4825650000000001       4.4275349999999998 
