    6

    He       0.0000000000000000       0.0000000000000000       0.0000000000000000 
    He       1.4849242380000001       0.0000000000000000       0.0000000000000000 
    He       0.0000000000000000       1.4849242380000001       0.0000000000000000 
    He       1.4849242380000001       1.4849242380000001       0.0000000000000000 
    He       0.7424621190000000       0.7424621190000000       1.0500000000000000 
    He       0.7424621190000000       0.7424621190000000      -1.0500000000000000 
    6

    He       0.0000000000000000       0.0000000000000000       0.0000000000000000 
    He       1.5556349160000003       0.0000000000000000       0.0000000000000000 
    He       0.0000000000000000       1.5556349160000003       0.0000000000000000 
    He       1.5556349160000003       1.5556349160000003       0.0000000000000000 
    He       0.7778174580000001       0.7778174580000001       1.1000000000000001 
    He       0.7778174580000001       0.7778174580000001      -1.1000000000000001 
    6

    He       0.0000000000000000       0.0000000000000000       0.0000000000000000 
    He       1.6263455940000000       0.0000000000000000       0.0000000000000000 
    He       0.0000000000000000       1.6263455940000000       0.0000000000000000 
    He       1.6263455940000000       1.6263455940000000       0.0000000000000000 
    He       0.8131727970000000       0.8131727970000000       1.1499999999999999 
    He       0.8131727970000000       0.8131727970000000      -1.1499999999999999 
    6

    He       0.0000000000000000       0.0000000000000000       0.0000000000000000 
    He       1.6970562720000000       0.0000000000000000       0.0000000000000000 
    He       0.0000000000000000       1.6970562720000000       0.0000000000000000 
    He       1.6970562720000000       1.6970562720000000       0.0000000000000000 
    He       0.8485281360000000       0.8485281360000000       1.2000000000000000 
    He       0.8485281360000000       0.8485281360000000      -1.2000000000000000 
    6

    He       0.0000000000000000       0.0000000000000000       0.0000000000000000 
    He       1.7677669500000002       0.0000000000000000       0.0000000000000000 
    He       0.0000000000000000       1.7677669500000002       0.0000000000000000 
    He       1.7677669500000002       1.7677669500000002       0.0000000000000000 
    He       0.8838834750000001       0.8838834750000001       1.2500000000000000 
    He       0.8838834750000001       0.8838834750000001      -1.2500000000000000 
    6

    He       0.0000000000000000       0.0000000000000000       0.0000000000000000 
    He       1.8384776280000001       0.0000000000000000       0.0000000000000000 
    He       0.0000000000000000       1.8384776280000001       0.0000000000000000 
    He       1.8384776280000001       1.8384776280000001       0.0000000000000000 
    He       0.9192388140000001       0.9192388140000001       1.3000000000000000 
    He       0.9192388140000001       0.9192388140000001      -1.3000000000000000 
    6

    He       0.0000000000000000       0.0000000000000000       0.0000000000000000 
    He       1.9091883060000003       0.0000000000000000       0.0000000000000000 
    He       0.0000000000000000       1.9091883060000003       0.0000000000000000 
    He       1.9091883060000003       1.9091883060000003       0.0000000000000000 
    He       0.9545941530000002       0.9545941530000002       1.3500000000000001 
    He       0.9545941530000002       0.9545941530000002      -1.3500000000000001 
    6

    He       0.0000000000000000       0.0000000000000000       0.0000000000000000 
    He       1.9798989840000001       0.0000000000000000       0.0000000000000000 
    He       0.0000000000000000       1.9798989840000001       0.0000000000000000 
    He       1.9798989840000001       1.9798989840000001       0.0000000000000000 
    He       0.9899494920000000       0.9899494920000000       1.3999999999999999 
    He       0.9899494920000000       0.9899494920000000      -1.3999999999999999 
    6

    He       0.0000000000000000       0.0000000000000000       0.0000000000000000 
    He       2.0506096620000003       0.0000000000000000       0.0000000000000000 
    He       0.0000000000000000       2.0506096620000003       0.0000000000000000 
    He       2.0506096620000003       2.0506096620000003       0.0000000000000000 
    He       1.0253048310000001       1.0253048310000001       1.4500000000000000 
    He       1.0253048310000001       1.0253048310000001      -1.4500000000000000 
    6

    He       0.0000000000000000       0.0000000000000000       0.0000000000000000 
    He       2.1213203400000000       0.0000000000000000       0.0000000000000000 
    He       0.0000000000000000       2.1213203400000000       0.0000000000000000 
    He       2.1213203400000000       2.1213203400000000       0.0000000000000000 
    He       1.0606601700000000       1.0606601700000000       1.5000000000000000 
    He       1.0606601700000000       1.0606601700000000      -1.5000000000000000 
    6

    He       0.0000000000000000       0.0000000000000000       0.0000000000000000 
    He       2.1920310180000002       0.0000000000000000       0.0000000000000000 
    He       0.0000000000000000       2.1920310180000002       0.0000000000000000 
    He       2.1920310180000002       2.1920310180000002       0.0000000000000000 
    He       1.0960155090000001       1.0960155090000001       1.5500000000000000 
    He       1.0960155090000001       1.0960155090000001      -1.5500000000000000 
    6

    He       0.0000000000000000       0.0000000000000000       0.0000000000000000 
    He       2.2627416960000004       0.0000000000000000       0.0000000000000000 
    He       0.0000000000000000       2.2627416960000004       0.0000000000000000 
    He       2.2627416960000004       2.2627416960000004       0.0000000000000000 
    He       1.1313708480000002       1.1313708480000002       1.6000000000000001 
    He       1.1313708480000002       1.1313708480000002      -1.6000000000000001 
    6

    He       0.0000000000000000       0.0000000000000000       0.0000000000000000 
    He       2.3334523740000002       0.0000000000000000       0.0000000000000000 
    He       0.0000000000000000       2.3334523740000002       0.0000000000000000 
    He       2.3334523740000002       2.3334523740000002       0.0000000000000000 
    He       1.1667261870000001       1.1667261870000001       1.6499999999999999 
    He       1.1667261870000001       1.1667261870000001      -1.6499999999999999 
    6

    He       0.0000000000000000       0.0000000000000000       0.0000000000000000 
    He       2.4041630520000004       0.0000000000000000       0.0000000000000000 
    He       0.0000000000000000       2.4041630520000004       0.0000000000000000 
    He       2.4041630520000004       2.4041630520000004       0.0000000000000000 
    He       1.2020815260000002       1.2020815260000002       1.7000000000000002 
    He       1.2020815260000002       1.2020815260000002      -1.7000000000000002 
    6

    He       0.0000000000000000       0.0000000000000000       0.0000000000000000 
    He       2.4748737300000001       0.0000000000000000       0.0000000000000000 
    He       0.0000000000000000       2.4748737300000001       0.0000000000000000 
    He       2.4748737300000001       2.4748737300000001       0.0000000000000000 
    He       1.2374368650000001       1.2374368650000001       1.7500000000000000 
    He       1.2374368650000001       1.2374368650000001      -1.7500000000000000 
    6

    He       0.0000000000000000       0.0000000000000000       0.0000000000000000 
    He       2.5455844080000003       0.0000000000000000       0.0000000000000000 
    He       0.0000000000000000       2.5455844080000003       0.0000000000000000 
    He       2.5455844080000003       2.5455844080000003       0.0000000000000000 
    He       1.2727922040000001       1.2727922040000001       1.8000000000000000 
    He       1.2727922040000001       1.2727922040000001      -1.8000000000000000 
    6

    He       0.0000000000000000       0.0000000000000000       0.0000000000000000 
    He       2.6162950860000005       0.0000000000000000       0.0000000000000000 
    He       0.0000000000000000       2.6162950860000005       0.0000000000000000 
    He       2.6162950860000005       2.6162950860000005       0.0000000000000000 
    He       1.3081475430000002       1.3081475430000002       1.8500000000000001 
    He       1.3081475430000002       1.3081475430000002      -1.8500000000000001 
    6

    He       0.0000000000000000       0.0000000000000000       0.0000000000000000 
    He       2.6870057640000002       0.0000000000000000       0.0000000000000000 
    He       0.0000000000000000       2.6870057640000002       0.0000000000000000 
    He       2.6870057640000002       2.6870057640000002       0.0000000000000000 
    He       1.3435028820000001       1.3435028820000001       1.8999999999999999 
    He       1.3435028820000001       1.3435028820000001      -1.8999999999999999 
    6

    He       0.0000000000000000       0.0000000000000000       0.0000000000000000 
    He       2.7577164420000004       0.0000000000000000       0.0000000000000000 
    He       0.0000000000000000       2.7577164420000004       0.0000000000000000 
    He       2.7577164420000004       2.7577164420000004       0.0000000000000000 
    He       1.3788582210000002       1.3788582210000002       1.9500000000000002 
    He       1.3788582210000002       1.3788582210000002      -1.9500000000000002 
    6

    He       0.0000000000000000       0.0000000000000000       0.0000000000000000 
    He       2.8284271200000002       0.0000000000000000       0.0000000000000000 
    He       0.0000000000000000       2.8284271200000002       0.0000000000000000 
    He       2.8284271200000002       2.8284271200000002       0.0000000000000000 
    He       1.4142135600000001       1.4142135600000001       2.0000000000000000 
    He       1.4142135600000001       1.4142135600000001      -2.0000000000000000 
    6

    He       0.0000000000000000       0.0000000000000000       0.0000000000000000 
    He       2.8991377979999999       0.0000000000000000       0.0000000000000000 
    He       0.0000000000000000       2.8991377979999999       0.0000000000000000 
    He       2.8991377979999999       2.8991377979999999       0.0000000000000000 
    He       1.4495688990000000       1.4495688990000000       2.0499999999999998 
    He       1.4495688990000000       1.4495688990000000      -2.0499999999999998 
    6

    He       0.0000000000000000       0.0000000000000000       0.0000000000000000 
    He       2.9698484760000001       0.0000000000000000       0.0000000000000000 
    He       0.0000000000000000       2.9698484760000001       0.0000000000000000 
    He       2.9698484760000001       2.9698484760000001       0.0000000000000000 
    He       1.4849242380000001       1.4849242380000001       2.1000000000000001 
    He       1.4849242380000001       1.4849242380000001      -2.1000000000000001 
    6

    He       0.0000000000000000       0.0000000000000000       0.0000000000000000 
    He       3.0405591540000008       0.0000000000000000       0.0000000000000000 
    He       0.0000000000000000       3.0405591540000008       0.0000000000000000 
    He       3.0405591540000008       3.0405591540000008       0.0000000000000000 
    He       1.5202795770000004       1.5202795770000004       2.1500000000000004 
    He       1.5202795770000004       1.5202795770000004      -2.1500000000000004 
    6

    He       0.0000000000000000       0.0000000000000000       0.0000000000000000 
    He       3.1112698320000005       0.0000000000000000       0.0000000000000000 
    He       0.0000000000000000       3.1112698320000005       0.0000000000000000 
    He       3.1112698320000005       3.1112698320000005       0.0000000000000000 
    He       1.5556349160000003       1.5556349160000003       2.2000000000000002 
    He       1.5556349160000003       1.5556349160000003      -2.2000000000000002 
    6

    He       0.0000000000000000       0.0000000000000000       0.0000000000000000 
    He       3.1819805100000003       0.0000000000000000       0.0000000000000000 
    He       0.0000000000000000       3.1819805100000003       0.0000000000000000 
    He       3.1819805100000003       3.1819805100000003       0.0000000000000000 
    He       1.5909902550000001       1.5909902550000001       2.2500000000000000 
    He       1.5909902550000001       1.5909902550000001      -2.2500000000000000 
    6

    He       0.0000000000000000       0.0000000000000000       0.0000000000000000 
    He       3.2526911880000000       0.0000000000000000       0.0000000000000000 
    He       0.0000000000000000       3.2526911880000000       0.0000000000000000 
    He       3.2526911880000000       3.2526911880000000       0.0000000000000000 
    He       1.6263455940000000       1.6263455940000000       2.2999999999999998 
    He       1.6263455940000000       1.6263455940000000      -2.2999999999999998 
    6

    He       0.0000000000000000       0.0000000000000000       0.0000000000000000 
    He       3.3234018660000002       0.0000000000000000       0.0000000000000000 
    He       0.0000000000000000       3.3234018660000002       0.0000000000000000 
    He       3.3234018660000002       3.3234018660000002       0.0000000000000000 
    He       1.6617009330000001       1.6617009330000001       2.3500000000000001 
    He       1.6617009330000001       1.6617009330000001      -2.3500000000000001 
    6

    He       0.0000000000000000       0.0000000000000000       0.0000000000000000 
    He       3.3941125440000008       0.0000000000000000       0.0000000000000000 
    He       0.0000000000000000       3.3941125440000008       0.0000000000000000 
    He       3.3941125440000008       3.3941125440000008       0.0000000000000000 
    He       1.6970562720000004       1.6970562720000004       2.4000000000000004 
    He       1.6970562720000004       1.6970562720000004      -2.4000000000000004 
    6

    He       0.0000000000000000       0.0000000000000000       0.0000000000000000 
    He       3.4648232220000006       0.0000000000000000       0.0000000000000000 
    He       0.0000000000000000       3.4648232220000006       0.0000000000000000 
    He       3.4648232220000006       3.4648232220000006       0.0000000000000000 
    He       1.7324116110000003       1.7324116110000003       2.4500000000000002 
    He       1.7324116110000003       1.7324116110000003      -2.4500000000000002 
    6

    He       0.0000000000000000       0.0000000000000000       0.0000000000000000 
    He       3.5355339000000003       0.0000000000000000       0.0000000000000000 
    He       0.0000000000000000       3.5355339000000003       0.0000000000000000 
    He       3.5355339000000003       3.5355339000000003       0.0000000000000000 
    He       1.7677669500000002       1.7677669500000002       2.5000000000000000 
    He       1.7677669500000002       1.7677669500000002      -2.5000000000000000 
    6

    He       0.0000000000000000       0.0000000000000000       0.0000000000000000 
    He       3.6062445780000001       0.0000000000000000       0.0000000000000000 
    He       0.0000000000000000       3.6062445780000001       0.0000000000000000 
    He       3.6062445780000001       3.6062445780000001       0.0000000000000000 
    He       1.8031222890000000       1.8031222890000000       2.5499999999999998 
    He       1.8031222890000000       1.8031222890000000      -2.5499999999999998 
    6

    He       0.0000000000000000       0.0000000000000000       0.0000000000000000 
    He       3.6769552560000003       0.0000000000000000       0.0000000000000000 
    He       0.0000000000000000       3.6769552560000003       0.0000000000000000 
    He       3.6769552560000003       3.6769552560000003       0.0000000000000000 
    He       1.8384776280000001       1.8384776280000001       2.6000000000000001 
    He       1.8384776280000001       1.8384776280000001      -2.6000000000000001 
    6

    He       0.0000000000000000       0.0000000000000000       0.0000000000000000 
    He       3.7476659340000009       0.0000000000000000       0.0000000000000000 
    He       0.0000000000000000       3.7476659340000009       0.0000000000000000 
    He       3.7476659340000009       3.7476659340000009       0.0000000000000000 
    He       1.8738329670000005       1.8738329670000005       2.6500000000000004 
    He       1.8738329670000005       1.8738329670000005      -2.6500000000000004 
    6

    He       0.0000000000000000       0.0000000000000000       0.0000000000000000 
    He       3.8183766120000007       0.0000000000000000       0.0000000000000000 
    He       0.0000000000000000       3.8183766120000007       0.0000000000000000 
    He       3.8183766120000007       3.8183766120000007       0.0000000000000000 
    He       1.9091883060000003       1.9091883060000003       2.7000000000000002 
    He       1.9091883060000003       1.9091883060000003      -2.7000000000000002 
    6

    He       0.0000000000000000       0.0000000000000000       0.0000000000000000 
    He       3.8890872900000004       0.0000000000000000       0.0000000000000000 
    He       0.0000000000000000       3.8890872900000004       0.0000000000000000 
    He       3.8890872900000004       3.8890872900000004       0.0000000000000000 
    He       1.9445436450000002       1.9445436450000002       2.7500000000000000 
    He       1.9445436450000002       1.9445436450000002      -2.7500000000000000 
    6

    He       0.0000000000000000       0.0000000000000000       0.0000000000000000 
    He       3.9597979680000002       0.0000000000000000       0.0000000000000000 
    He       0.0000000000000000       3.9597979680000002       0.0000000000000000 
    He       3.9597979680000002       3.9597979680000002       0.0000000000000000 
    He       1.9798989840000001       1.9798989840000001       2.7999999999999998 
    He       1.9798989840000001       1.9798989840000001      -2.7999999999999998 
    6

    He       0.0000000000000000       0.0000000000000000       0.0000000000000000 
    He       4.0305086460000004       0.0000000000000000       0.0000000000000000 
    He       0.0000000000000000       4.0305086460000004       0.0000000000000000 
    He       4.0305086460000004       4.0305086460000004       0.0000000000000000 
    He       2.0152543230000002       2.0152543230000002       2.8500000000000001 
    He       2.0152543230000002       2.0152543230000002      -2.8500000000000001 
    6

    He       0.0000000000000000       0.0000000000000000       0.0000000000000000 
    He       4.1012193240000006       0.0000000000000000       0.0000000000000000 
    He       0.0000000000000000       4.1012193240000006       0.0000000000000000 
    He       4.1012193240000006       4.1012193240000006       0.0000000000000000 
    He       2.0506096620000003       2.0506096620000003       2.9000000000000004 
    He       2.0506096620000003       2.0506096620000003      -2.9000000000000004 
    6

    He       0.0000000000000000       0.0000000000000000       0.0000000000000000 
    He       4.1719300020000007       0.0000000000000000       0.0000000000000000 
    He       0.0000000000000000       4.1719300020000007       0.0000000000000000 
    He       4.1719300020000007       4.1719300020000007       0.0000000000000000 
    He       2.0859650010000004       2.0859650010000004       2.9500000000000002 
    He       2.0859650010000004       2.0859650010000004      -2.9500000000000002 
    6

    He       0.0000000000000000       0.0000000000000000       0.0000000000000000 
    He       4.2426406800000001       0.0000000000000000       0.0000000000000000 
    He       0.0000000000000000       4.2426406800000001       0.0000000000000000 
    He       4.2426406800000001       4.2426406800000001       0.0000000000000000 
    He       2.1213203400000000       2.1213203400000000       3.0000000000000000 
    He       2.1213203400000000       2.1213203400000000      -3.0000000000000000 
