    6

    He       0.0000000000000000       0.0000000000000000       0.0000000000000000 
    He       4.4547720000000002       0.0000000000000000       0.0000000000000000 
    He       0.0000000000000000       4.4547720000000002       0.0000000000000000 
    He       4.4547720000000002       4.4547720000000002       0.0000000000000000 
    He       2.2273860000000001       2.2273860000000001       3.1500000000000004 
    He       2.2273860000000001       2.2273860000000001      -3.1500000000000004 
    6

    He       0.0000000000000000       0.0000000000000000       0.0000000000000000 
    He       4.6669039999999997       0.0000000000000000       0.0000000000000000 
    He       0.0000000000000000       4.6669039999999997       0.0000000000000000 
    He       4.6669039999999997       4.6669039999999997       0.0000000000000000 
    He       2.3334519999999999       2.3334519999999999       3.3000000000000003 
    He       2.3334519999999999       2.3334519999999999      -3.3000000000000003 
    6

    He       0.0000000000000000       0.0000000000000000       0.0000000000000000 
    He       4.8790359999999993       0.0000000000000000       0.0000000000000000 
    He       0.0000000000000000       4.8790359999999993       0.0000000000000000 
    He       4.8790359999999993       4.8790359999999993       0.0000000000000000 
    He       2.4395179999999996       2.4395179999999996       3.4499999999999997 
    He       2.4395179999999996       2.4395179999999996      -3.4499999999999997 
    6

    He       0.0000000000000000       0.0000000000000000       0.0000000000000000 
    He       5.0911679999999997       0.0000000000000000       0.0000000000000000 
    He       0.0000000000000000       5.0911679999999997       0.0000000000000000 
    He       5.0911679999999997       5.0911679999999997       0.0000000000000000 
    He       2.5455839999999998       2.5455839999999998       3.5999999999999996 
    He       2.5455839999999998       2.5455839999999998      -3.5999999999999996 
    6

    He       0.0000000000000000       0.0000000000000000       0.0000000000000000 
    He       5.3033000000000001       0.0000000000000000       0.0000000000000000 
    He       0.0000000000000000       5.3033000000000001       0.0000000000000000 
    He       5.3033000000000001       5.3033000000000001       0.0000000000000000 
    He       2.6516500000000001       2.6516500000000001       3.7500000000000000 
    He       2.6516500000000001       2.6516500000000001      -3.7500000000000000 
    6

    He       0.0000000000000000       0.0000000000000000       0.0000000000000000 
    He       5.5154319999999997       0.0000000000000000       0.0000000000000000 
    He       0.0000000000000000       5.5154319999999997       0.0000000000000000 
    He       5.5154319999999997       5.5154319999999997       0.0000000000000000 
    He       2.7577159999999998       2.7577159999999998       3.9000000000000004 
    He       2.7577159999999998       2.7577159999999998      -3.9000000000000004 
    6

    He       0.0000000000000000       0.0000000000000000       0.0000000000000000 
    He       5.7275640000000001       0.0000000000000000       0.0000000000000000 
    He       0.0000000000000000       5.7275640000000001       0.0000000000000000 
    He       5.7275640000000001       5.7275640000000001       0.0000000000000000 
    He       2.8637820000000000       2.8637820000000000       4.0500000000000007 
    He       2.8637820000000000       2.8637820000000000      -4.0500000000000007 
    6

    He       0.0000000000000000       0.0000000000000000       0.0000000000000000 
    He       5.9396959999999996       0.0000000000000000       0.0000000000000000 
    He       0.0000000000000000       5.9396959999999996       0.0000000000000000 
    He       5.9396959999999996       5.9396959999999996       0.0000000000000000 
    He       2.9698479999999998       2.9698479999999998       4.1999999999999993 
    He       2.9698479999999998       2.9698479999999998      -4.1999999999999993 
    6

    He       0.0000000000000000       0.0000000000000000       0.0000000000000000 
    He       6.1518279999999992       0.0000000000000000       0.0000000000000000 
    He       0.0000000000000000       6.1518279999999992       0.0000000000000000 
    He       6.1518279999999992       6.1518279999999992       0.0000000000000000 
    He       3.0759139999999996       3.0759139999999996       4.3499999999999996 
    He       3.0759139999999996       3.0759139999999996      -4.3499999999999996 
    6

    He       0.0000000000000000       0.0000000000000000       0.0000000000000000 
    He       6.3639599999999996       0.0000000000000000       0.0000000000000000 
    He       0.0000000000000000       6.3639599999999996       0.0000000000000000 
    He       6.3639599999999996       6.3639599999999996       0.0000000000000000 
    He       3.1819799999999998       3.1819799999999998       4.5000000000000000 
    He       3.1819799999999998       3.1819799999999998      -4.5000000000000000 
    6

    He       0.0000000000000000       0.0000000000000000       0.0000000000000000 
    He       6.5760920000000000       0.0000000000000000       0.0000000000000000 
    He       0.0000000000000000       6.5760920000000000       0.0000000000000000 
    He       6.5760920000000000       6.5760920000000000       0.0000000000000000 
    He       3.2880460000000000       3.2880460000000000       4.6500000000000004 
    He       3.2880460000000000       3.2880460000000000      -4.6500000000000004 
    6

    He       0.0000000000000000       0.0000000000000000       0.0000000000000000 
    He       6.7882239999999996       0.0000000000000000       0.0000000000000000 
    He       0.0000000000000000       6.7882239999999996       0.0000000000000000 
    He       6.7882239999999996       6.7882239999999996       0.0000000000000000 
    He       3.3941119999999998       3.3941119999999998       4.8000000000000007 
    He       3.3941119999999998       3.3941119999999998      -4.8000000000000007 
    6

    He       0.0000000000000000       0.0000000000000000       0.0000000000000000 
    He       7.0003559999999991       0.0000000000000000       0.0000000000000000 
    He       0.0000000000000000       7.0003559999999991       0.0000000000000000 
    He       7.0003559999999991       7.0003559999999991       0.0000000000000000 
    He       3.5001779999999996       3.5001779999999996       4.9499999999999993 
    He       3.5001779999999996       3.5001779999999996      -4.9499999999999993 
    6

    He       0.0000000000000000       0.0000000000000000       0.0000000000000000 
    He       7.2124880000000005       0.0000000000000000       0.0000000000000000 
    He       0.0000000000000000       7.2124880000000005       0.0000000000000000 
    He       7.2124880000000005       7.2124880000000005       0.0000000000000000 
    He       3.6062440000000002       3.6062440000000002       5.1000000000000005 
    He       3.6062440000000002       3.6062440000000002      -5.1000000000000005 
    6

    He       0.0000000000000000       0.0000000000000000       0.0000000000000000 
    He       7.4246199999999991       0.0000000000000000       0.0000000000000000 
    He       0.0000000000000000       7.4246199999999991       0.0000000000000000 
    He       7.4246199999999991       7.4246199999999991       0.0000000000000000 
    He       3.7123099999999996       3.7123099999999996       5.2500000000000000 
    He       3.7123099999999996       3.7123099999999996      -5.2500000000000000 
    6

    He       0.0000000000000000       0.0000000000000000       0.0000000000000000 
    He       7.6367519999999995       0.0000000000000000       0.0000000000000000 
    He       0.0000000000000000       7.6367519999999995       0.0000000000000000 
    He       7.6367519999999995       7.6367519999999995       0.0000000000000000 
    He       3.8183759999999998       3.8183759999999998       5.4000000000000004 
    He       3.8183759999999998       3.8183759999999998      -5.4000000000000004 
    6

    He       0.0000000000000000       0.0000000000000000       0.0000000000000000 
    He       7.8488840000000000       0.0000000000000000       0.0000000000000000 
    He       0.0000000000000000       7.8488840000000000       0.0000000000000000 
    He       7.8488840000000000       7.8488840000000000       0.0000000000000000 
    He       3.9244420000000000       3.9244420000000000       5.5500000000000007 
    He       3.9244420000000000       3.9244420000000000      -5.5500000000000007 
    6

    He       0.0000000000000000       0.0000000000000000       0.0000000000000000 
    He       8.0610159999999986       0.0000000000000000       0.0000000000000000 
    He       0.0000000000000000       8.0610159999999986       0.0000000000000000 
    He       8.0610159999999986       8.0610159999999986       0.0000000000000000 
    He       4.0305079999999993       4.0305079999999993       5.6999999999999993 
    He       4.0305079999999993       4.0305079999999993      -5.6999999999999993 
    6

    He       0.0000000000000000       0.0000000000000000       0.0000000000000000 
    He       8.2731480000000008       0.0000000000000000       0.0000000000000000 
    He       0.0000000000000000       8.2731480000000008       0.0000000000000000 
    He       8.2731480000000008       8.2731480000000008       0.0000000000000000 
    He       4.1365740000000004       4.1365740000000004       5.8500000000000005 
    He       4.1365740000000004       4.1365740000000004      -5.8500000000000005 
    6

    He       0.0000000000000000       0.0000000000000000       0.0000000000000000 
    He       8.4852799999999995       0.0000000000000000       0.0000000000000000 
    He       0.0000000000000000       8.4852799999999995       0.0000000000000000 
    He       8.4852799999999995       8.4852799999999995       0.0000000000000000 
    He       4.2426399999999997       4.2426399999999997       6.0000000000000000 
    He       4.2426399999999997       4.2426399999999997      -6.0000000000000000 
    6

    He       0.0000000000000000       0.0000000000000000       0.0000000000000000 
    He       8.6974119999999981       0.0000000000000000       0.0000000000000000 
    He       0.0000000000000000       8.6974119999999981       0.0000000000000000 
    He       8.6974119999999981       8.6974119999999981       0.0000000000000000 
    He       4.3487059999999991       4.3487059999999991       6.1499999999999995 
    He       4.3487059999999991       4.3487059999999991      -6.1499999999999995 
    6

    He       0.0000000000000000       0.0000000000000000       0.0000000000000000 
    He       8.9095440000000004       0.0000000000000000       0.0000000000000000 
    He       0.0000000000000000       8.9095440000000004       0.0000000000000000 
    He       8.9095440000000004       8.9095440000000004       0.0000000000000000 
    He       4.4547720000000002       4.4547720000000002       6.3000000000000007 
    He       4.4547720000000002       4.4547720000000002      -6.3000000000000007 
    6

    He       0.0000000000000000       0.0000000000000000       0.0000000000000000 
    He       9.1216760000000008       0.0000000000000000       0.0000000000000000 
    He       0.0000000000000000       9.1216760000000008       0.0000000000000000 
    He       9.1216760000000008       9.1216760000000008       0.0000000000000000 
    He       4.5608380000000004       4.5608380000000004       6.4500000000000011 
    He       4.5608380000000004       4.5608380000000004      -6.4500000000000011 
    6

    He       0.0000000000000000       0.0000000000000000       0.0000000000000000 
    He       9.3338079999999994       0.0000000000000000       0.0000000000000000 
    He       0.0000000000000000       9.3338079999999994       0.0000000000000000 
    He       9.3338079999999994       9.3338079999999994       0.0000000000000000 
    He       4.6669039999999997       4.6669039999999997       6.6000000000000005 
    He       4.6669039999999997       4.6669039999999997      -6.6000000000000005 
    6

    He       0.0000000000000000       0.0000000000000000       0.0000000000000000 
    He       9.5459399999999999       0.0000000000000000       0.0000000000000000 
    He       0.0000000000000000       9.5459399999999999       0.0000000000000000 
    He       9.5459399999999999       9.5459399999999999       0.0000000000000000 
    He       4.7729699999999999       4.7729699999999999       6.7500000000000000 
    He       4.7729699999999999       4.7729699999999999      -6.7500000000000000 
    6

    He       0.0000000000000000       0.0000000000000000       0.0000000000000000 
    He       9.7580719999999985       0.0000000000000000       0.0000000000000000 
    He       0.0000000000000000       9.7580719999999985       0.0000000000000000 
    He       9.7580719999999985       9.7580719999999985       0.0000000000000000 
    He       4.8790359999999993       4.8790359999999993       6.8999999999999995 
    He       4.8790359999999993       4.8790359999999993      -6.8999999999999995 
    6

    He       0.0000000000000000       0.0000000000000000       0.0000000000000000 
    He       9.9702039999999990       0.0000000000000000       0.0000000000000000 
    He       0.0000000000000000       9.9702039999999990       0.0000000000000000 
    He       9.9702039999999990       9.9702039999999990       0.0000000000000000 
    He       4.9851019999999995       4.9851019999999995       7.0500000000000007 
    He       4.9851019999999995       4.9851019999999995      -7.0500000000000007 
    6

    He       0.0000000000000000       0.0000000000000000       0.0000000000000000 
    He      10.1823360000000012       0.0000000000000000       0.0000000000000000 
    He       0.0000000000000000      10.1823360000000012       0.0000000000000000 
    He      10.1823360000000012      10.1823360000000012       0.0000000000000000 
    He       5.0911680000000006       5.0911680000000006       7.2000000000000011 
    He       5.0911680000000006       5.0911680000000006      -7.2000000000000011 
    6

    He       0.0000000000000000       0.0000000000000000       0.0000000000000000 
    He      10.3944679999999998       0.0000000000000000       0.0000000000000000 
    He       0.0000000000000000      10.3944679999999998       0.0000000000000000 
    He      10.3944679999999998      10.3944679999999998       0.0000000000000000 
    He       5.1972339999999999       5.1972339999999999       7.3500000000000005 
    He       5.1972339999999999       5.1972339999999999      -7.3500000000000005 
    6

    He       0.0000000000000000       0.0000000000000000       0.0000000000000000 
    He      10.6066000000000003       0.0000000000000000       0.0000000000000000 
    He       0.0000000000000000      10.6066000000000003       0.0000000000000000 
    He      10.6066000000000003      10.6066000000000003       0.0000000000000000 
    He       5.3033000000000001       5.3033000000000001       7.5000000000000000 
    He       5.3033000000000001       5.3033000000000001      -7.5000000000000000 
    6

    He       0.0000000000000000       0.0000000000000000       0.0000000000000000 
    He      10.8187319999999989       0.0000000000000000       0.0000000000000000 
    He       0.0000000000000000      10.8187319999999989       0.0000000000000000 
    He      10.8187319999999989      10.8187319999999989       0.0000000000000000 
    He       5.4093659999999995       5.4093659999999995       7.6499999999999995 
    He       5.4093659999999995       5.4093659999999995      -7.6499999999999995 
    6

    He       0.0000000000000000       0.0000000000000000       0.0000000000000000 
    He      11.0308639999999993       0.0000000000000000       0.0000000000000000 
    He       0.0000000000000000      11.0308639999999993       0.0000000000000000 
    He      11.0308639999999993      11.0308639999999993       0.0000000000000000 
    He       5.5154319999999997       5.5154319999999997       7.8000000000000007 
    He       5.5154319999999997       5.5154319999999997      -7.8000000000000007 
    6

    He       0.0000000000000000       0.0000000000000000       0.0000000000000000 
    He      11.2429960000000015       0.0000000000000000       0.0000000000000000 
    He       0.0000000000000000      11.2429960000000015       0.0000000000000000 
    He      11.2429960000000015      11.2429960000000015       0.0000000000000000 
    He       5.6214980000000008       5.6214980000000008       7.9500000000000011 
    He       5.6214980000000008       5.6214980000000008      -7.9500000000000011 
    6

    He       0.0000000000000000       0.0000000000000000       0.0000000000000000 
    He      11.4551280000000002       0.0000000000000000       0.0000000000000000 
    He       0.0000000000000000      11.4551280000000002       0.0000000000000000 
    He      11.4551280000000002      11.4551280000000002       0.0000000000000000 
    He       5.7275640000000001       5.7275640000000001       8.1000000000000014 
    He       5.7275640000000001       5.7275640000000001      -8.1000000000000014 
    6

    He       0.0000000000000000       0.0000000000000000       0.0000000000000000 
    He      11.6672599999999989       0.0000000000000000       0.0000000000000000 
    He       0.0000000000000000      11.6672599999999989       0.0000000000000000 
    He      11.6672599999999989      11.6672599999999989       0.0000000000000000 
    He       5.8336299999999994       5.8336299999999994       8.2500000000000000 
    He       5.8336299999999994       5.8336299999999994      -8.2500000000000000 
    6

    He       0.0000000000000000       0.0000000000000000       0.0000000000000000 
    He      11.8793919999999993       0.0000000000000000       0.0000000000000000 
    He       0.0000000000000000      11.8793919999999993       0.0000000000000000 
    He      11.8793919999999993      11.8793919999999993       0.0000000000000000 
    He       5.9396959999999996       5.9396959999999996       8.3999999999999986 
    He       5.9396959999999996       5.9396959999999996      -8.3999999999999986 
    6

    He       0.0000000000000000       0.0000000000000000       0.0000000000000000 
    He      12.0915239999999997       0.0000000000000000       0.0000000000000000 
    He       0.0000000000000000      12.0915239999999997       0.0000000000000000 
    He      12.0915239999999997      12.0915239999999997       0.0000000000000000 
    He       6.0457619999999999       6.0457619999999999       8.5500000000000007 
    He       6.0457619999999999       6.0457619999999999      -8.5500000000000007 
    6

    He       0.0000000000000000       0.0000000000000000       0.0000000000000000 
    He      12.3036560000000001       0.0000000000000000       0.0000000000000000 
    He       0.0000000000000000      12.3036560000000001       0.0000000000000000 
    He      12.3036560000000001      12.3036560000000001       0.0000000000000000 
    He       6.1518280000000001       6.1518280000000001       8.7000000000000011 
    He       6.1518280000000001       6.1518280000000001      -8.7000000000000011 
    6

    He       0.0000000000000000       0.0000000000000000       0.0000000000000000 
    He      12.5157880000000006       0.0000000000000000       0.0000000000000000 
    He       0.0000000000000000      12.5157880000000006       0.0000000000000000 
    He      12.5157880000000006      12.5157880000000006       0.0000000000000000 
    He       6.2578940000000003       6.2578940000000003       8.8500000000000014 
    He       6.2578940000000003       6.2578940000000003      -8.8500000000000014 
    6

    He       0.0000000000000000       0.0000000000000000       0.0000000000000000 
    He      12.7279199999999992       0.0000000000000000       0.0000000000000000 
    He       0.0000000000000000      12.7279199999999992       0.0000000000000000 
    He      12.7279199999999992      12.7279199999999992       0.0000000000000000 
    He       6.3639599999999996       6.3639599999999996       9.0000000000000000 
    He       6.3639599999999996       6.3639599999999996      -9.0000000000000000 
