24

Fe  5.48 1.15 -8.03
S   4.05 -0.61 -8.75
S   7.49 0.42 -9.04
Fe  6.04 -1.22 -9.63
S   5.47 1.25 -5.58
S   4.63 3.28 -8.77
S   5.75 -1.50 -12.05
S   6.86 -3.41 -8.86
C   5.51 4.45 -7.51
H   6.49 4.83 -7.92
H   4.87 5.33 -7.25
H   5.72 3.84 -6.59
C   3.60 1.70 -5.54
H   3.01 0.80 -5.82
H   3.28 2.06 -4.52
H   3.42 2.48 -6.31
C   5.21 -4.22 -9.46
H   5.10 -4.01 -10.55
H   5.21 -5.32 -9.26
H   4.37 -3.72 -8.93
C   7.63 -1.85 -12.24
H   7.90 -2.06 -13.31
H   8.20 -0.96 -11.86
H   7.89 -2.72 -11.59
