8

He       0.0000000000000000       0.0000000000000000      -0.6762625000000000 
He      -0.0000000000000000       0.0000000000000000       2.3193874999999999 
He      -0.0000000000000000       0.0000000000000000      -3.5852250000000003 
He       2.0367500000000001       1.4797875000000000       0.8059125000000000 
He       2.0367500000000001      -1.4797875000000000       0.8059125000000000 
He      -0.7779750000000001       2.3943500000000002       0.8059125000000000 
He      -0.7779750000000001      -2.3943500000000002       0.8059125000000000 
He      -2.5175625000000004       0.0000000000000000       0.8059125000000000 
