43

 Cr 0.82627800 -1.30446200 -0.96524300
 Cr -0.82625500 1.30449100 0.96521400
 O 0.00001100 0.00001500 -0.00001400
 N 2.71379100 -0.58517300 -0.32156700
 H 3.52017600 -0.87998300 -0.88101600
 H 2.98302700 -0.84252100 0.62848200
 H 2.75216700 0.43162900 -0.34666000
 N 0.90611400 -0.01191500 -2.64373800
 H 0.15767300 0.67336300 -2.59732700
 H 0.79520000 -0.45289000 -3.56150100
 H 1.76766300 0.52845600 -2.74461100
 N 0.74644200 -2.59700900 0.71325300
 H 0.86887400 -3.59499400 0.51496700
 H -0.15371900 -2.54555600 1.18538900
 H 1.44183900 -2.41670700 1.43797600
 N -1.06123500 -2.02375100 -1.60891800
 H -1.51982700 -2.67507800 -0.96956400
 H -1.07760500 -2.52098500 -2.50431600
 H -1.71705200 -1.25706600 -1.73635500
 N 1.78821400 -2.82312800 -2.08895700
 H 2.20721200 -2.51946500 -2.97231100
 H 1.19687500 -3.61071400 -2.36865500
 H 2.56853800 -3.28036700 -1.60828700
 N -2.71376800 0.58520300 0.32153900
 H -2.72742600 -0.43151600 0.28926300
 H -3.01495100 0.88961900 -0.60504900
 H -3.51124000 0.82996900 0.91689300
 N -0.90609100 0.01194400 2.64371000
 H -0.86251400 0.45862400 3.56440800
 H -0.11862500 -0.63055500 2.63771800
 H -1.73984000 -0.57546100 2.70589400
 N 1.06125800 2.02378000 1.60888900
 H 1.08580100 2.47872200 2.52630400
 H 1.50134100 2.71049000 0.99382500
 H 1.72819800 1.26071800 1.68834600
 N -0.74641900 2.59703800 -0.71328200
 H -0.92607700 3.58837700 -0.52509900
 H -1.40673500 2.37764300 -1.45939400
 H 0.17080800 2.59240800 -1.15542700
 N -1.78819100 2.82315700 2.08892800
 H -1.19783000 3.61531400 2.35756800
 H -2.19798000 2.52398300 2.97800300
 H -2.57540900 3.27269300 1.61233200
